Circuit: * D:\github-stuff\cross_band_handy_walkie_talkie\HW\cross_band_handy_walkie_talkie_ES8388\Power_circuit_SIM\POWER.asc

Instance "m:u4:2": Length shorter than recommended for a level 3 MOSFET.
Instance "m:u3:2": Length shorter than recommended for a level 3 MOSFET.
Instance "m:u2:2": Length shorter than recommended for a level 3 MOSFET.
Direct Newton iteration failed to find .op point.  (Use ".option noopiter" to skip.)
Starting Gmin stepping
Gmin = 10
Gmin = 1.07374
Gmin = 0.115292
Gmin = 0.0123794
Gmin = 0.00132923
Gmin = 0.000142725
Gmin = 1.5325e-005
Gmin = 1.6455e-006
Gmin = 1.76685e-007
Gmin = 1.89714e-008
Gmin = 2.03704e-009
Gmin = 2.18725e-010
Gmin = 2.34854e-011
Gmin = 2.52173e-012
Gmin = 2.70769e-013
Gmin = 0
Gmin stepping succeeded in finding the operating point.

Heightened Def Con from 0.0250018 +++++++++++++++++to 0.0250018
Heightened Def Con from 0.0250018 +++++++++++++++++to 0.0250018
Heightened Def Con from 0.0250018 +++++++++++++++++to 0.0250018
Heightened Def Con from 0.0250018 +++++++++++++++++to 0.0250018
Heightened Def Con from 0.0250018 +++++++++++++++++to 0.0250018
Heightened Def Con from 0.0250018 +++++++++++++++++to 0.0250018
Heightened Def Con from 0.0250018 +++++++++++++++++to 0.0250018
Heightened Def Con from 0.0250018 +++++++++++++++++to 0.0250018
Heightened Def Con from 0.0250018 +++++++++++++++++to 0.0250018
Heightened Def Con from 0.0250018 +++++++++++++++++to 0.0250018
Heightened Def Con from 0.0250018 +++++++++++++++++to 0.0250018
Heightened Def Con from 0.0250018 +++++++++++++++++to 0.0250018
Heightened Def Con from 0.0250018 +++++++++++++++++to 0.0250018
Heightened Def Con from 0.0250018 +++++++++++++++++to 0.0250018
Heightened Def Con from 0.0250018 +++++++++++++++++to 0.0250018
Heightened Def Con from 0.0250018 +++++++++++++++++to 0.0250018
Heightened Def Con from 0.0250018 +++++++++++++++++to 0.0250018
Heightened Def Con from 0.0250018 +++++++++++++++++to 0.0250018
Heightened Def Con from 0.0250018 +++++++++++++++++to 0.0250018
Heightened Def Con from 0.0250018 +++++++++++++++++to 0.0250018
Heightened Def Con from 0.0250018 +++++++++++++++++to 0.0250018
Heightened Def Con from 0.0250018 +++++++++++++++++to 0.0250018
Heightened Def Con from 0.0250018 +++++++++++++++++to 0.0250018
Heightened Def Con from 0.0250018 +++++++++++++++++to 0.0250018
Heightened Def Con from 0.0250018 +++++++++++++++++to 0.0250018
Heightened Def Con from 0.0250018 +++++++++++++++++to 0.0250018
Heightened Def Con from 0.0250018 +++++++++++++++++to 0.0250018
Heightened Def Con from 0.0250018 +++++++++++++++++to 0.0250018
Heightened Def Con from 0.0250018 +++++++++++++++++to 0.0250018
Heightened Def Con from 0.0250018 +++++++++++++++++to 0.0250018
Heightened Def Con from 0.0250018 +++++++++++++++++to 0.0250018
Heightened Def Con from 0.0250018 +++++++++++++++++to 0.0250018
Heightened Def Con from 0.0250018 +++++++++++++++++to 0.0250018
Heightened Def Con from 0.0250018 +++++++++++++++++to 0.0250018
Heightened Def Con from 0.0250018 +++++++++++++++++to 0.0250018
Heightened Def Con from 0.0250018 +++++++++++++++++to 0.0250018
Heightened Def Con from 0.0250018 +++++++++++++++++to 0.0250018
Heightened Def Con from 0.0250018 +++++++++++++++++to 0.0250018
Heightened Def Con from 0.0250018 +++++++++++++++++to 0.0250018
Heightened Def Con from 0.0250018 +++++++++++++++++to 0.0250018
Heightened Def Con from 0.0250018 +++++++++++++++++to 0.0250018
Heightened Def Con from 0.0250018 +++++++++++++++++to 0.0250018
Heightened Def Con from 0.0250018 +++++++++++++++++to 0.0250018
Heightened Def Con from 0.0250018 +++++++++++++++++to 0.0250018
Heightened Def Con from 0.0250018 +++++++++++++++++to 0.0250018
Heightened Def Con from 0.0250018 +++++++++++++++++to 0.0250018
Heightened Def Con from 0.0250018 +++++++++++++++++to 0.0250018
Heightened Def Con from 0.0250018 +++++++++++++++++to 0.0250018
Heightened Def Con from 0.0250018 +++++++++++++++++to 0.0250018
Heightened Def Con from 0.0250018 +++++++++++++++++to 0.0250018
Heightened Def Con from 0.0250018 +++++++++++++++++to 0.0250018
Heightened Def Con from 0.0250018 +++++++++++++++++to 0.0250018
Heightened Def Con from 0.0250018 +++++++++++++++++to 0.0250018
Heightened Def Con from 0.0250018 +++++++++++++++++to 0.0250018
Heightened Def Con from 0.0250018 +++++++++++++++++to 0.0250018
Heightened Def Con from 0.0250018 +++++++++++++++++to 0.0250018
Heightened Def Con from 0.0250018 +++++++++++++++++to 0.0250018
Heightened Def Con from 0.0250018 +++++++++++++++++to 0.0250018
Heightened Def Con from 0.0250018 +++++++++++++++++to 0.0250018
Heightened Def Con from 0.0250018 +++++++++++++++++to 0.0250018
Heightened Def Con from 0.0250018 +++++++++++++++++to 0.0250018
Heightened Def Con from 0.0250018 +++++++++++++++++to 0.0250018
Heightened Def Con from 0.0250018 +++++++++++++++++to 0.0250018
Heightened Def Con from 0.0250018 +++++++++++++++++to 0.0250018
Heightened Def Con from 0.0250018 +++++++++++++++++to 0.0250018
Heightened Def Con from 0.0250018 +++++++++++++++++to 0.0250018
Heightened Def Con from 0.0250018 +++++++++++++++++to 0.0250018
Heightened Def Con from 0.0250018 +++++++++++++++++to 0.0250018
Heightened Def Con from 0.0250018 +++++++++++++++++to 0.0250018
Heightened Def Con from 0.0250018 +++++++++++++++++to 0.0250018
Heightened Def Con from 0.0250018 +++++++++++++++++to 0.0250018
Heightened Def Con from 0.0250018 +++++++++++++++++to 0.0250018
Heightened Def Con from 0.0250018 +++++++++++++++++to 0.0250018
Heightened Def Con from 0.0250018 +++++++++++++++++to 0.0250018
Heightened Def Con from 0.0250018 +++++++++++++++++to 0.0250018
Heightened Def Con from 0.0250018 +++++++++++++++++to 0.0250018
Heightened Def Con from 0.0250018 +++++++++++++++++to 0.0250018
Heightened Def Con from 0.0250018 +++++++++++++++++to 0.0250018
Heightened Def Con from 0.0250018 +++++++++++++++++to 0.0250018
Heightened Def Con from 0.0250018 +++++++++++++++++to 0.0250018
Heightened Def Con from 0.0250018 +++++++++++++++++to 0.0250018
Heightened Def Con from 0.0250018 +++++++++++++++++to 0.0250018
Heightened Def Con from 0.0250018 +++++++++++++++++to 0.0250018
Heightened Def Con from 0.0250018 +++++++++++++++++to 0.0250018
Heightened Def Con from 0.0250018 +++++++++++++++++to 0.0250018
Heightened Def Con from 0.0250018 +++++++++++++++++to 0.0250018
Heightened Def Con from 0.0250018 +++++++++++++++++to 0.0250018
Heightened Def Con from 0.0250018 +++++++++++++++++to 0.0250018
Heightened Def Con from 0.0250018 +++++++++++++++++to 0.0250018
Heightened Def Con from 0.0250018 +++++++++++++++++to 0.0250018
Heightened Def Con from 0.0250018 +++++++++++++++++to 0.0250018
Heightened Def Con from 0.0250018 +++++++++++++++++to 0.0250018
Heightened Def Con from 0.0250018 +++++++++++++++++to 0.0250018
Heightened Def Con from 0.0250018 +++++++++++++++++to 0.0250018
Heightened Def Con from 0.0250018 +++++++++++++++++to 0.0250018
Heightened Def Con from 0.0250018 +++++++++++++++++to 0.0250018
Heightened Def Con from 0.0250018 +++++++++++++++++to 0.0250018
Heightened Def Con from 0.0250018 +++++++++++++++++to 0.0250018
Heightened Def Con from 0.0250018 +++++++++++++++++to 0.0250018
Heightened Def Con from 0.0250018 +++++++++++++++++to 0.0250018
Heightened Def Con from 0.0250018 +++++++++++++++++to 0.0250018
Heightened Def Con from 0.0250018 +++++++++++++++++to 0.0250018
Heightened Def Con from 0.0250018 +++++++++++++++++to 0.0250018
Heightened Def Con from 0.0250018 +++++++++++++++++to 0.0250018
Heightened Def Con from 0.0250018 +++++++++++++++++to 0.0250018
Heightened Def Con from 0.0250018 +++++++++++++++++to 0.0250018
Heightened Def Con from 0.0250018 +++++++++++++++++to 0.0250018
Heightened Def Con from 0.0250018 +++++++++++++++++to 0.0250018
Heightened Def Con from 0.0250018 +++++++++++++++++to 0.0250018
Heightened Def Con from 0.0250018 +++++++++++++++++to 0.0250018
Heightened Def Con from 0.0250018 +++++++++++++++++to 0.0250018
Heightened Def Con from 0.0250018 +++++++++++++++++to 0.0250018
Heightened Def Con from 0.0250018 +++++++++++++++++to 0.0250018
Heightened Def Con from 0.0250018 +++++++++++++++++to 0.0250018
Heightened Def Con from 0.0250018 +++++++++++++++++to 0.0250018
Heightened Def Con from 0.0250018 +++++++++++++++++to 0.0250018
Heightened Def Con from 0.0250018 +++++++++++++++++to 0.0250018
Heightened Def Con from 0.0250018 +++++++++++++++++to 0.0250018
Heightened Def Con from 0.0250018 +++++++++++++++++to 0.0250018
Heightened Def Con from 0.0250018 +++++++++++++++++to 0.0250018
Heightened Def Con from 0.0250018 +++++++++++++++++to 0.0250018
Heightened Def Con from 0.0250018 +++++++++++++++++to 0.0250018
Heightened Def Con from 0.0250018 +++++++++++++++++to 0.0250018
Heightened Def Con from 0.0250018 +++++++++++++++++to 0.0250018
Heightened Def Con from 0.0250018 +++++++++++++++++to 0.0250018
Heightened Def Con from 0.0250018 +++++++++++++++++to 0.0250018
Heightened Def Con from 0.0250018 +++++++++++++++++to 0.0250018
Heightened Def Con from 0.0250018 +++++++++++++++++to 0.0250018
Heightened Def Con from 0.0250018 +++++++++++++++++to 0.0250018
Heightened Def Con from 0.0250018 +++++++++++++++++to 0.0250018
Heightened Def Con from 0.0250018 +++++++++++++++++to 0.0250018
Heightened Def Con from 0.0250018 +++++++++++++++++to 0.0250018
Heightened Def Con from 0.0250018 +++++++++++++++++to 0.0250018
Heightened Def Con from 0.0250018 +++++++++++++++++to 0.0250018
Heightened Def Con from 0.0250018 +++++++++++++++++to 0.0250018
Heightened Def Con from 0.0250018 +++++++++++++++++to 0.0250018
Heightened Def Con from 0.0250018 +++++++++++++++++to 0.0250018
Heightened Def Con from 0.0250018 +++++++++++++++++to 0.0250018
Heightened Def Con from 0.0250018 +++++++++++++++++to 0.0250018
Heightened Def Con from 0.0250018 +++++++++++++++++to 0.0250018
Heightened Def Con from 0.0250018 +++++++++++++++++to 0.0250018
Heightened Def Con from 0.0250018 +++++++++++++++++to 0.0250018
Heightened Def Con from 0.0250018 +++++++++++++++++to 0.0250018
Heightened Def Con from 0.0250018 +++++++++++++++++to 0.0250018
Heightened Def Con from 0.0250018 +++++++++++++++++to 0.0250018
Heightened Def Con from 0.0250018 +++++++++++++++++to 0.0250018
Heightened Def Con from 0.0250018 +++++++++++++++++to 0.0250018
Heightened Def Con from 0.0250018 +++++++++++++++++to 0.0250018
Heightened Def Con from 0.0250018 +++++++++++++++++to 0.0250018
Heightened Def Con from 0.0250018 +++++++++++++++++to 0.0250018
Heightened Def Con from 0.0250018 +++++++++++++++++to 0.0250018
Heightened Def Con from 0.0250018 +++++++++++++++++to 0.0250018
Heightened Def Con from 0.0250018 +++++++++++++++++to 0.0250018
Heightened Def Con from 0.0250018 +++++++++++++++++to 0.0250018
Heightened Def Con from 0.0250018 +++++++++++++++++to 0.0250018
Heightened Def Con from 0.0250018 +++++++++++++++++to 0.0250018
Heightened Def Con from 0.0250018 +++++++++++++++++to 0.0250018
Heightened Def Con from 0.0250018 +++++++++++++++++to 0.0250018
Heightened Def Con from 0.0250018 +++++++++++++++++to 0.0250018
Heightened Def Con from 0.0250018 +++++++++++++++++to 0.0250018
Heightened Def Con from 0.0250018 +++++++++++++++++to 0.0250018
Heightened Def Con from 0.0250018 +++++++++++++++++to 0.0250018
Heightened Def Con from 0.0250018 +++++++++++++++++to 0.0250018
Heightened Def Con from 0.0250018 +++++++++++++++++to 0.0250018
Heightened Def Con from 0.0250018 +++++++++++++++++to 0.0250018
Heightened Def Con from 0.0250018 +++++++++++++++++to 0.0250018
Heightened Def Con from 0.0250018 +++++++++++++++++to 0.0250018
Heightened Def Con from 0.0250018 +++++++++++++++++to 0.0250018
Heightened Def Con from 0.0250018 +++++++++++++++++to 0.0250018
Heightened Def Con from 0.0250018 +++++++++++++++++to 0.0250018
Heightened Def Con from 0.0250018 +++++++++++++++++to 0.0250018
Heightened Def Con from 0.0250018 +++++++++++++++++to 0.0250018
Heightened Def Con from 0.0250018 +++++++++++++++++to 0.0250018
Heightened Def Con from 0.0250018 +++++++++++++++++to 0.0250018
Heightened Def Con from 0.0250018 +++++++++++++++++to 0.0250018
Heightened Def Con from 0.0250018 +++++++++++++++++to 0.0250018
Heightened Def Con from 0.0250018 +++++++++++++++++to 0.0250018
Heightened Def Con from 0.0250018 +++++++++++++++++to 0.0250018
Heightened Def Con from 0.0250018 +++++++++++++++++to 0.0250018
Heightened Def Con from 0.0250018 +++++++++++++++++to 0.0250018
Heightened Def Con from 0.0250018 +++++++++++++++++to 0.0250018
Heightened Def Con from 0.0250018 +++++++++++++++++to 0.0250018
Heightened Def Con from 0.0250018 +++++++++++++++++to 0.0250018
Heightened Def Con from 0.0250018 +++++++++++++++++to 0.0250018
Heightened Def Con from 0.0250018 +++++++++++++++++to 0.0250018
Heightened Def Con from 0.0250018 +++++++++++++++++to 0.0250018
Heightened Def Con from 0.0250018 +++++++++++++++++to 0.0250018
Heightened Def Con from 0.0250018 +++++++++++++++++to 0.0250018
Heightened Def Con from 0.0250018 +++++++++++++++++to 0.0250018
Heightened Def Con from 0.0250018 +++++++++++++++++to 0.0250018
Heightened Def Con from 0.0250018 +++++++++++++++++to 0.0250018
Heightened Def Con from 0.0250018 +++++++++++++++++to 0.0250018
Heightened Def Con from 0.0250018 +++++++++++++++++to 0.0250018
Heightened Def Con from 0.0250018 +++++++++++++++++to 0.0250018
Heightened Def Con from 0.0250018 +++++++++++++++++to 0.0250018
Heightened Def Con from 0.0250018 +++++++++++++++++to 0.0250018
Heightened Def Con from 0.0250018 +++++++++++++++++to 0.0250018
Heightened Def Con from 0.0250018 +++++++++++++++++to 0.0250018
Heightened Def Con from 0.0250018 +++++++++++++++++to 0.0250018
Heightened Def Con from 0.0250018 +++++++++++++++++to 0.0250018
Heightened Def Con from 0.0250018 +++++++++++++++++to 0.0250018
Heightened Def Con from 0.0250018 +++++++++++++++++to 0.0250018
Heightened Def Con from 0.0250018 +++++++++++++++++to 0.0250018
Heightened Def Con from 0.0250018 +++++++++++++++++to 0.0250018
Heightened Def Con from 0.0250018 +++++++++++++++++to 0.0250018
Heightened Def Con from 0.0250018 +++++++++++++++++to 0.0250018
Heightened Def Con from 0.0250018 +++++++++++++++++to 0.0250018
Heightened Def Con from 0.0250018 +++++++++++++++++to 0.0250018
Heightened Def Con from 0.0250018 +++++++++++++++++to 0.0250018
Heightened Def Con from 0.0250018 +++++++++++++++++to 0.0250018
Heightened Def Con from 0.0250018 +++++++++++++++++to 0.0250018
Heightened Def Con from 0.0250018 +++++++++++++++++to 0.0250018
Heightened Def Con from 0.0250018 +++++++++++++++++to 0.0250018
Heightened Def Con from 0.0250018 +++++++++++++++++to 0.0250018
Heightened Def Con from 0.0250018 +++++++++++++++++to 0.0250018
Heightened Def Con from 0.0250018 +++++++++++++++++to 0.0250018
Heightened Def Con from 0.0250018 +++++++++++++++++to 0.0250018
Heightened Def Con from 0.0250018 +++++++++++++++++to 0.0250018
Heightened Def Con from 0.0250018 +++++++++++++++++to 0.0250018
Heightened Def Con from 0.0250018 +++++++++++++++++to 0.0250018
Heightened Def Con from 0.0250018 +++++++++++++++++to 0.0250018
Heightened Def Con from 0.0250018 +++++++++++++++++to 0.0250018
Heightened Def Con from 0.0250018 +++++++++++++++++to 0.0250018
Heightened Def Con from 0.0250018 +++++++++++++++++to 0.0250018
Heightened Def Con from 0.0250018 +++++++++++++++++to 0.0250018
Heightened Def Con from 0.0250018 +++++++++++++++++to 0.0250018
Heightened Def Con from 0.0250018 +++++++++++++++++to 0.0250018
Heightened Def Con from 0.0250018 +++++++++++++++++to 0.0250018
Heightened Def Con from 0.0250018 +++++++++++++++++to 0.0250018
Heightened Def Con from 0.0250018 +++++++++++++++++to 0.0250018
Heightened Def Con from 0.0250018 +++++++++++++++++to 0.0250018
Heightened Def Con from 0.0250018 +++++++++++++++++to 0.0250018
Heightened Def Con from 0.0250018 +++++++++++++++++to 0.0250018
Heightened Def Con from 0.0250018 +++++++++++++++++to 0.0250018
Heightened Def Con from 0.0250018 +++++++++++++++++to 0.0250018
Heightened Def Con from 0.0250018 +++++++++++++++++to 0.0250018
Heightened Def Con from 0.0250018 +++++++++++++++++to 0.0250018
Heightened Def Con from 0.0250018 +++++++++++++++++to 0.0250018
Heightened Def Con from 0.0250018 +++++++++++++++++to 0.0250018
Heightened Def Con from 0.0250018 +++++++++++++++++to 0.0250018
Heightened Def Con from 0.0250018 +++++++++++++++++to 0.0250018
Heightened Def Con from 0.0250018 +++++++++++++++++to 0.0250018
Heightened Def Con from 0.0250018 +++++++++++++++++to 0.0250018
Heightened Def Con from 0.0250018 +++++++++++++++++to 0.0250018
Heightened Def Con from 0.0250018 +++++++++++++++++to 0.0250018
Heightened Def Con from 0.0250018 +++++++++++++++++to 0.0250018
Heightened Def Con from 0.0250018 +++++++++++++++++to 0.0250018
Heightened Def Con from 0.0250018 +++++++++++++++++to 0.0250018
Heightened Def Con from 0.0250018 +++++++++++++++++to 0.0250018
Heightened Def Con from 0.0250018 +++++++++++++++++to 0.0250018
Heightened Def Con from 0.0250018 +++++++++++++++++to 0.0250018
Heightened Def Con from 0.0250018 +++++++++++++++++to 0.0250018
Heightened Def Con from 0.0250018 +++++++++++++++++to 0.0250018
Heightened Def Con from 0.0250018 +++++++++++++++++to 0.0250018
Heightened Def Con from 0.0250018 +++++++++++++++++to 0.0250018
Heightened Def Con from 0.0250018 +++++++++++++++++to 0.0250018
Heightened Def Con from 0.0250018 +++++++++++++++++to 0.0250018
Heightened Def Con from 0.0250018 +++++++++++++++++to 0.0250018
Heightened Def Con from 0.0250018 +++++++++++++++++to 0.0250018
Heightened Def Con from 0.0250018 +++++++++++++++++to 0.0250018
Heightened Def Con from 0.0250018 +++++++++++++++++to 0.0250018
Heightened Def Con from 0.0250018 +++++++++++++++++to 0.0250018
Heightened Def Con from 0.0250018 +++++++++++++++++to 0.0250018
Heightened Def Con from 0.0250018 +++++++++++++++++to 0.0250018
Heightened Def Con from 0.0250018 +++++++++++++++++to 0.0250018
Heightened Def Con from 0.0250018 +++++++++++++++++to 0.0250018
Heightened Def Con from 0.0250018 +++++++++++++++++to 0.0250018
Heightened Def Con from 0.0250018 +++++++++++++++++to 0.0250018
Heightened Def Con from 0.0250018 +++++++++++++++++to 0.0250018
Heightened Def Con from 0.0250018 +++++++++++++++++to 0.0250018
Heightened Def Con from 0.0250018 +++++++++++++++++to 0.0250018
Heightened Def Con from 0.0250018 +++++++++++++++++to 0.0250018
Heightened Def Con from 0.0250018 +++++++++++++++++to 0.0250018
Heightened Def Con from 0.0250018 +++++++++++++++++to 0.0250018
Heightened Def Con from 0.0250018 +++++++++++++++++to 0.0250018
Heightened Def Con from 0.0250018 +++++++++++++++++to 0.0250018
Heightened Def Con from 0.0250018 +++++++++++++++++to 0.0250018
Heightened Def Con from 0.0250018 +++++++++++++++++to 0.0250018
Heightened Def Con from 0.0250018 +++++++++++++++++to 0.0250018
Heightened Def Con from 0.0250018 +++++++++++++++++to 0.0250018
Heightened Def Con from 0.0250018 +++++++++++++++++to 0.0250018
Heightened Def Con from 0.0250018 +++++++++++++++++to 0.0250018
Heightened Def Con from 0.0250018 +++++++++++++++++to 0.0250018
Heightened Def Con from 0.0250018 +++++++++++++++++to 0.0250018
Heightened Def Con from 0.0250018 +++++++++++++++++to 0.0250018
Heightened Def Con from 0.0250018 +++++++++++++++++to 0.0250018
Heightened Def Con from 0.0250018 +++++++++++++++++to 0.0250018
Heightened Def Con from 0.0250018 +++++++++++++++++to 0.0250018
Heightened Def Con from 0.0250018 +++++++++++++++++to 0.0250018
Heightened Def Con from 0.0250018 +++++++++++++++++to 0.0250018
Heightened Def Con from 0.0250018 +++++++++++++++++to 0.0250018
Heightened Def Con from 0.0250018 +++++++++++++++++to 0.0250018
Heightened Def Con from 0.0250018 +++++++++++++++++to 0.0250018
Heightened Def Con from 0.0250018 +++++++++++++++++to 0.0250018
Heightened Def Con from 0.0250018 +++++++++++++++++to 0.0250018
Heightened Def Con from 0.0250018 +++++++++++++++++to 0.0250018
Heightened Def Con from 0.0250018 +++++++++++++++++to 0.0250018
Heightened Def Con from 0.0250018 +++++++++++++++++to 0.0250018
Heightened Def Con from 0.0250018 +++++++++++++++++to 0.0250018
Heightened Def Con from 0.0250018 +++++++++++++++++to 0.0250018
Heightened Def Con from 0.0250018 +++++++++++++++++to 0.0250018
Heightened Def Con from 0.0250018 +++++++++++++++++to 0.0250018
Heightened Def Con from 0.0250018 +++++++++++++++++to 0.0250018
Heightened Def Con from 0.0250018 +++++++++++++++++to 0.0250018
Heightened Def Con from 0.0250018 +++++++++++++++++to 0.0250018
Heightened Def Con from 0.0250018 +++++++++++++++++to 0.0250018
Heightened Def Con from 0.0250018 +++++++++++++++++to 0.0250018
Heightened Def Con from 0.0250018 +++++++++++++++++to 0.0250018
Heightened Def Con from 0.0250018 +++++++++++++++++to 0.0250018
Heightened Def Con from 0.0250018 +++++++++++++++++to 0.0250018
Heightened Def Con from 0.0250018 +++++++++++++++++to 0.0250018
Heightened Def Con from 0.0250018 +++++++++++++++++to 0.0250018
Heightened Def Con from 0.0250018 +++++++++++++++++to 0.0250018
Heightened Def Con from 0.0250018 +++++++++++++++++to 0.0250018
Heightened Def Con from 0.0250018 +++++++++++++++++to 0.0250018
Heightened Def Con from 0.0250018 +++++++++++++++++to 0.0250018
Heightened Def Con from 0.0250018 +++++++++++++++++to 0.0250018
Heightened Def Con from 0.0250018 +++++++++++++++++to 0.0250018
Heightened Def Con from 0.0250018 +++++++++++++++++to 0.0250018
Heightened Def Con from 0.0250018 +++++++++++++++++to 0.0250018
Heightened Def Con from 0.0250018 +++++++++++++++++to 0.0250018
Heightened Def Con from 0.0250018 +++++++++++++++++to 0.0250018
Heightened Def Con from 0.0250018 +++++++++++++++++to 0.0250018
Heightened Def Con from 0.0250018 +++++++++++++++++to 0.0250018
Heightened Def Con from 0.0250018 +++++++++++++++++to 0.0250018
Heightened Def Con from 0.0250018 +++++++++++++++++to 0.0250018
Heightened Def Con from 0.0250018 +++++++++++++++++to 0.0250018
Heightened Def Con from 0.0250018 +++++++++++++++++to 0.0250018
Heightened Def Con from 0.0250018 +++++++++++++++++to 0.0250018
Heightened Def Con from 0.0250018 +++++++++++++++++to 0.0250018
Heightened Def Con from 0.0250018 +++++++++++++++++to 0.0250018
Heightened Def Con from 0.0250018 +++++++++++++++++to 0.0250018
Heightened Def Con from 0.0250018 +++++++++++++++++to 0.0250018
Heightened Def Con from 0.0250018 +++++++++++++++++to 0.0250018
Heightened Def Con from 0.0250018 +++++++++++++++++to 0.0250018
Heightened Def Con from 0.0250018 +++++++++++++++++to 0.0250018
Heightened Def Con from 0.0250018 +++++++++++++++++to 0.0250018
Heightened Def Con from 0.0250018 +++++++++++++++++to 0.0250018
Heightened Def Con from 0.0250018 +++++++++++++++++to 0.0250018
Heightened Def Con from 0.0250018 +++++++++++++++++to 0.0250018
Heightened Def Con from 0.0250018 +++++++++++++++++to 0.0250018
Heightened Def Con from 0.0250018 +++++++++++++++++to 0.0250018
Heightened Def Con from 0.0250018 +++++++++++++++++to 0.0250018
Heightened Def Con from 0.0250018 +++++++++++++++++to 0.0250018
Heightened Def Con from 0.0250018 +++++++++++++++++to 0.0250018
Heightened Def Con from 0.0250018 +++++++++++++++++to 0.0250018
Heightened Def Con from 0.0250018 +++++++++++++++++to 0.0250018
Heightened Def Con from 0.0250018 +++++++++++++++++to 0.0250018
Heightened Def Con from 0.0250018 +++++++++++++++++to 0.0250018
Heightened Def Con from 0.0250018 +++++++++++++++++to 0.0250018
Heightened Def Con from 0.0250018 +++++++++++++++++to 0.0250018
Heightened Def Con from 0.0250018 +++++++++++++++++to 0.0250018
Heightened Def Con from 0.0250018 +++++++++++++++++to 0.0250018
Heightened Def Con from 0.0250018 +++++++++++++++++to 0.0250018
Heightened Def Con from 0.0250018 +++++++++++++++++to 0.0250018
Heightened Def Con from 0.0250018 +++++++++++++++++to 0.0250018
Heightened Def Con from 0.0250018 +++++++++++++++++to 0.0250018
Heightened Def Con from 0.0250018 +++++++++++++++++to 0.0250018
Heightened Def Con from 0.0250018 +++++++++++++++++to 0.0250018
Heightened Def Con from 0.0250018 +++++++++++++++++to 0.0250018
Heightened Def Con from 0.0250018 +++++++++++++++++to 0.0250018
Heightened Def Con from 0.0250018 +++++++++++++++++to 0.0250018
Heightened Def Con from 0.0250018 +++++++++++++++++to 0.0250018
Heightened Def Con from 0.0250018 +++++++++++++++++to 0.0250018
Heightened Def Con from 0.0250018 +++++++++++++++++to 0.0250018
Heightened Def Con from 0.0250018 +++++++++++++++++to 0.0250018
Heightened Def Con from 0.0250018 +++++++++++++++++to 0.0250018
Heightened Def Con from 0.0250018 +++++++++++++++++to 0.0250018
Heightened Def Con from 0.0250018 +++++++++++++++++to 0.0250018
Heightened Def Con from 0.0250018 +++++++++++++++++to 0.0250018
Heightened Def Con from 0.0250018 +++++++++++++++++to 0.0250018
Heightened Def Con from 0.0250018 +++++++++++++++++to 0.0250018
Heightened Def Con from 0.0250018 +++++++++++++++++to 0.0250018
Heightened Def Con from 0.0250018 +++++++++++++++++to 0.0250018
Heightened Def Con from 0.0250018 +++++++++++++++++to 0.0250018
Heightened Def Con from 0.0250018 +++++++++++++++++to 0.0250018
Heightened Def Con from 0.0250018 +++++++++++++++++to 0.0250018
Heightened Def Con from 0.0250018 +++++++++++++++++to 0.0250018
Heightened Def Con from 0.0250018 +++++++++++++++++to 0.0250018
Heightened Def Con from 0.0250018 +++++++++++++++++to 0.0250018
Heightened Def Con from 0.0250018 +++++++++++++++++to 0.0250018
Heightened Def Con from 0.0250018 +++++++++++++++++to 0.0250018
Heightened Def Con from 0.0250018 +++++++++++++++++to 0.0250018
Heightened Def Con from 0.0250018 +++++++++++++++++to 0.0250018
Heightened Def Con from 0.0250018 +++++++++++++++++to 0.0250018
Heightened Def Con from 0.0250018 +++++++++++++++++to 0.0250018
Heightened Def Con from 0.0250018 +++++++++++++++++to 0.0250019
Heightened Def Con from 0.0250019 +++++++++++++++++to 0.0250019
Heightened Def Con from 0.0250019 +++++++++++++++++to 0.0250019
Heightened Def Con from 0.0250019 +++++++++++++++++to 0.0250019
Heightened Def Con from 0.0250019 +++++++++++++++++to 0.0250019
Heightened Def Con from 0.0250019 +++++++++++++++++to 0.0250019
Heightened Def Con from 0.0250019 +++++++++++++++++to 0.0250019
Heightened Def Con from 0.0250019 +++++++++++++++++to 0.0250019
Heightened Def Con from 0.0250019 +++++++++++++++++to 0.0250019
Heightened Def Con from 0.0250019 +++++++++++++++++to 0.0250019
Heightened Def Con from 0.0250019 +++++++++++++++++to 0.0250019
Heightened Def Con from 0.0250019 +++++++++++++++++to 0.0250019
Heightened Def Con from 0.0250019 +++++++++++++++++to 0.0250019
Heightened Def Con from 0.0250019 +++++++++++++++++to 0.0250019
Heightened Def Con from 0.0250019 +++++++++++++++to 0.0250019
Heightened Def Con from 0.0250019 ++++++++++++++++++to 0.0250019
Heightened Def Con from 0.0250019 +++++++++++++++++to 0.0250019
Heightened Def Con from 0.0250019 +++++++++++++++to 0.0250019
Heightened Def Con from 0.0250019 ++++++++++++++++++to 0.0250019
Heightened Def Con from 0.0250019 +++++++++++++++++to 0.0250019
Heightened Def Con from 0.0250019 +++++++++++++++to 0.0250019
Heightened Def Con from 0.0250019 ++++++++++++++++++to 0.0250019
Heightened Def Con from 0.0250019 +++++++++++++++++to 0.0250019
Heightened Def Con from 0.0250019 +++++++++++++++to 0.0250019
Heightened Def Con from 0.0250019 ++++++++++++++++++to 0.0250019
Heightened Def Con from 0.0250019 +++++++++++++++to 0.0250019
Heightened Def Con from 0.0250019 ++++++++++++++++++to 0.0250019
Heightened Def Con from 0.0250019 +++++++++++++++to 0.0250019
Heightened Def Con from 0.0250019 +++++++++++++++to 0.0250019
Heightened Def Con from 0.0250019 +++++++++++++++to 0.0250019
Heightened Def Con from 0.0250019 +++++++++++++++to 0.0250019
Heightened Def Con from 0.0250019 +++++++++++++++to 0.0250019
Heightened Def Con from 0.0250019 +++++++++++++++to 0.0250019
Heightened Def Con from 0.0250019 +++++++++++++++to 0.0250019
Heightened Def Con from 0.0250019 +++++++++++++++to 0.0250019
Heightened Def Con from 0.0250019 +++++++++++++++to 0.0250019
Heightened Def Con from 0.0250019 +++++++++++++++to 0.0250019
Heightened Def Con from 0.0250019 +++++++++++++++to 0.0250019
Heightened Def Con from 0.0250019 +++++++++++++++to 0.0250019
Heightened Def Con from 0.0250019 +++++++++++++++to 0.0250019
Heightened Def Con from 0.0250019 +++++++++++++++to 0.0250019
Heightened Def Con from 0.0250019 +++++++++++++++to 0.0250019
Heightened Def Con from 0.0250019 +++++++++++++++to 0.0250019
Heightened Def Con from 0.0250019 +++++++++++++++to 0.0250019
Heightened Def Con from 0.0250019 +++++++++++++++to 0.0250019
Heightened Def Con from 0.0250019 +++++++++++++++to 0.0250019
Heightened Def Con from 0.0250019 +++++++++++++++to 0.0250019
Heightened Def Con from 0.0250019 +++++++++++++++to 0.0250019
Heightened Def Con from 0.0250019 +++++++++++++++to 0.0250019
Heightened Def Con from 0.0250019 +++++++++++++++to 0.0250019
Heightened Def Con from 0.0250019 +++++++++++++++to 0.0250019
Heightened Def Con from 0.0250019 +++++++++++++++to 0.0250019
Heightened Def Con from 0.0250019 +++++++++++++++to 0.0250019
Heightened Def Con from 0.0250019 +++++++++++++++to 0.0250019
Heightened Def Con from 0.0250019 +++++++++++++++to 0.0250019
Heightened Def Con from 0.0250019 +++++++++++++++to 0.0250019
Heightened Def Con from 0.0250019 +++++++++++++++to 0.0250019
Heightened Def Con from 0.0250019 +++++++++++++++to 0.0250019
Heightened Def Con from 0.0250019 +++++++++++++++to 0.0250019
Heightened Def Con from 0.0250019 +++++++++++++++to 0.0250019
Heightened Def Con from 0.0250019 +++++++++++++++to 0.0250019
Heightened Def Con from 0.0250019 +++++++++++++++to 0.0250019
Heightened Def Con from 0.0250019 +++++++++++++++to 0.0250019
Heightened Def Con from 0.0250019 +++++++++++++++to 0.0250019
Heightened Def Con from 0.0250019 +++++++++++++++to 0.0250019
Heightened Def Con from 0.0250019 +++++++++++++++to 0.0250019
Heightened Def Con from 0.0250019 +++++++++++++++to 0.0250019
Heightened Def Con from 0.0250019 +++++++++++++++to 0.0250019
Heightened Def Con from 0.0250019 +++++++++++++++to 0.0250019
Heightened Def Con from 0.0250019 +++++++++++++++to 0.0250019
Heightened Def Con from 0.0250019 +++++++++++++++to 0.0250019
Heightened Def Con from 0.0250019 +++++++++++++++to 0.0250019
Heightened Def Con from 0.0250019 +++++++++++++++to 0.0250019
Heightened Def Con from 0.0250019 +++++++++++++++to 0.0250019
Heightened Def Con from 0.0250019 +++++++++++++++to 0.0250019
Heightened Def Con from 0.0250019 +++++++++++++++to 0.0250019
Heightened Def Con from 0.0250019 +++++++++++++++to 0.0250019
Heightened Def Con from 0.0250019 +++++++++++++++to 0.0250019
Heightened Def Con from 0.0250019 +++++++++++++++to 0.0250019
Heightened Def Con from 0.0250019 +++++++++++++++to 0.0250019
Heightened Def Con from 0.0250019 +++++++++++++++to 0.0250019
Heightened Def Con from 0.0250019 +++++++++++++++to 0.0250019
Heightened Def Con from 0.0250019 +++++++++++++++to 0.0250019
Heightened Def Con from 0.0250019 +++++++++++++++to 0.0250019
Heightened Def Con from 0.0250019 +++++++++++++++to 0.0250019
Heightened Def Con from 0.0250019 +++++++++++++++to 0.0250019
Heightened Def Con from 0.0250019 +++++++++++++++to 0.0250019
Heightened Def Con from 0.0250019 +++++++++++++++to 0.0250019
Heightened Def Con from 0.0250019 +++++++++++++++to 0.0250019
Heightened Def Con from 0.0250019 +++++++++++++++to 0.0250019
Heightened Def Con from 0.0250019 +++++++++++++++to 0.0250019
Heightened Def Con from 0.0250019 +++++++++++++++to 0.0250019
Heightened Def Con from 0.0250019 +++++++++++++++to 0.0250019
Heightened Def Con from 0.0250019 +++++++++++++++to 0.0250019
Heightened Def Con from 0.0250019 +++++++++++++++to 0.0250019
Heightened Def Con from 0.0250019 +++++++++++++++to 0.0250019
Heightened Def Con from 0.0250019 +++++++++++++++to 0.0250019
Heightened Def Con from 0.0250019 +++++++++++++++to 0.0250019
Heightened Def Con from 0.0250019 +++++++++++++++to 0.0250019
Heightened Def Con from 0.0250019 +++++++++++++++to 0.0250019
Heightened Def Con from 0.0250019 +++++++++++++++to 0.0250019
Heightened Def Con from 0.0250019 +++++++++++++++to 0.0250019
Heightened Def Con from 0.0250019 +++++++++++++++to 0.0250019
Heightened Def Con from 0.0250019 +++++++++++++++to 0.0250019
Heightened Def Con from 0.0250019 +++++++++++++++to 0.0250019
Heightened Def Con from 0.0250019 +++++++++++++++to 0.0250019
Heightened Def Con from 0.0250019 +++++++++++++++to 0.0250019
Heightened Def Con from 0.0250019 +++++++++++++++to 0.0250019
Heightened Def Con from 0.0250019 +++++++++++++++to 0.0250019
Heightened Def Con from 0.0250019 +++++++++++++++to 0.0250019
Heightened Def Con from 0.0250019 +++++++++++++++to 0.0250019
Heightened Def Con from 0.0250019 +++++++++++++++to 0.0250019
Heightened Def Con from 0.0250019 +++++++++++++++to 0.0250019
Heightened Def Con from 0.0250019 +++++++++++++++to 0.0250019
Heightened Def Con from 0.0250019 +++++++++++++++to 0.0250019
Heightened Def Con from 0.0250019 +++++++++++++++to 0.0250019
Heightened Def Con from 0.0250019 +++++++++++++++to 0.0250019
Heightened Def Con from 0.0250019 +++++++++++++++to 0.0250019
Heightened Def Con from 0.0250019 +++++++++++++++to 0.0250019
Heightened Def Con from 0.0250019 +++++++++++++++to 0.0250019
Heightened Def Con from 0.0250019 +++++++++++++++to 0.0250019
Heightened Def Con from 0.0250019 +++++++++++++++to 0.0250019
Heightened Def Con from 0.0250019 +++++++++++++++to 0.0250019
Heightened Def Con from 0.0250019 +++++++++++++++to 0.0250019
Heightened Def Con from 0.0250019 +++++++++++++++++++to 0.0250019
Heightened Def Con from 0.0250019 ++++++++++++++++to 0.0250019
Heightened Def Con from 0.0250019 ++++++++++++++++to 0.0250019
Heightened Def Con from 0.0250019 +++++++++++++++to 0.0250019
Heightened Def Con from 0.0500012 ++++++++++++++++++++++++++++to 0.0500013
Heightened Def Con from 0.0500013 +++++++++++++++++++++++++++to 0.0500013
Heightened Def Con from 0.0500013 to 0.0500013
Heightened Def Con from 0.0500013 ++++++++++++++++++++++++++to 0.0500013

Date: Mon Mar 27 19:58:14 2023
Total elapsed time: 67.136 seconds.

tnom = 27
temp = 27
method = modified trap
totiter = 2918092
traniter = 2917741
tranpoints = 1083864
accept = 1010125
rejected = 82875
matrix size = 38
fillins = 8
solver = Normal
Matrix Compiler1: 3.50 KB object code size  0.7/0.4/[0.2]
Matrix Compiler2: 3.87 KB object code size  0.4/0.5/[0.4]

